LTspice 24.1.4 for Windows
Circuit: C:\Users\alexa\Desktop\Proiect SCIA\Etaj4.net
Start Time: Wed Jan 21 10:45:24 2026
solver = Normal
Maximum thread count: 8
tnom = 27
temp = 27
method = trap
Direct Newton iteration for .op point succeeded.
Total elapsed time: 0.245 seconds.

Files loaded:
C:\Users\alexa\Desktop\Proiect SCIA\Etaj4.net
C:\Users\alexa\AppData\Local\LTspice\lib\cmp\standard.dio
C:\Users\alexa\AppData\Local\LTspice\lib\sub\AD8065.lib

