LTspice 24.1.4 for Windows
Circuit: C:\Users\alexa\Desktop\Proiect SCIA\Etaj2.net
Start Time: Wed Jan 21 10:38:23 2026
solver = Normal
Maximum thread count: 8
tnom = 27
temp = 27
method = trap
Direct Newton iteration for .op point succeeded.
Total elapsed time: 0.162 seconds.

Files loaded:
C:\Users\alexa\Desktop\Proiect SCIA\Etaj2.net
C:\Users\alexa\AppData\Local\LTspice\lib\sub\AD8065.lib

