LTspice 24.1.4 for Windows
Circuit: C:\Users\alexa\Desktop\Proiect SCIA\Etaj3.net
Start Time: Wed Jan 21 11:35:20 2026
solver = Normal
Maximum thread count: 8
tnom = 27
temp = 27
method = trap
Instance "M1": Length shorter than recommended for a level 1 MOSFET.
Instance "M2": Length shorter than recommended for a level 1 MOSFET.
Direct Newton iteration for .op point succeeded.
Total elapsed time: 0.580 seconds.

Files loaded:
C:\Users\alexa\Desktop\Proiect SCIA\Etaj3.net
C:\Users\alexa\AppData\Local\LTspice\lib\cmp\standard.mos
C:\Users\alexa\AppData\Local\LTspice\lib\sub\AD8065.lib

Fourier components of V(vout)
N-Period=1
DC component:0.00221414

Harmonic	Frequency	 Fourier 	Normalized	 Phase  	Normalized
 Number 	  [Hz]   	Component	 Component	[degree]	Phase [deg]
    1   	 1.000e+04	 5.538e-01	 1.000e+00	   90.03°	    0.00°
    2   	 2.000e+04	 8.960e-06	 1.618e-05	    5.31°	  -84.72°
    3   	 3.000e+04	 8.357e-06	 1.509e-05	  -79.33°	 -169.35°
    4   	 4.000e+04	 7.999e-06	 1.444e-05	 -168.07°	 -258.10°
    5   	 5.000e+04	 8.212e-06	 1.483e-05	  102.22°	   12.19°
    6   	 6.000e+04	 8.586e-06	 1.550e-05	   16.52°	  -73.51°
    7   	 7.000e+04	 8.394e-06	 1.516e-05	  -67.94°	 -157.97°
    8   	 8.000e+04	 7.983e-06	 1.442e-05	 -156.13°	 -246.16°
    9   	 9.000e+04	 8.114e-06	 1.465e-05	  113.81°	   23.78°
Partial Harmonic Distortion: 0.004255%
Total Harmonic Distortion:   0.056126%

